ECE6613PD/PFproblem4/Midterm1.m
Bus.con = [ ... 
  1 138  1  0  4  1;
  2 138  1  0  4  1;
 ];

Line.con = [ ... 
  1  2  100  138  60  0  0 0.  0.1   0  0  0  0  0  0  1;
 ];


SW.con = [ ... 
  2  100  138  1.0   0  9.0  -9.0  1.1  0.9  -2.0  1  1  1;
 ];

PV.con = [ ... 
  1  100  138  5.0  1.1  9.0  -9.0  1.1  0.9  1  1;
 ];

PQ.con = [ ... 
  1  100  138  2.0  0.00    1.1  0.90  0  1
  2  100  138  1.0  0.4843  1.1  0.90  0  1 ;
 ];



Bus.names = {... 
  'Bus 01'; 'Bus 02'};

